3
Coordinates from ORCA-job test_water E -76.426063088540
  O      -3.566260      1.776390      0.000000
  H      -2.596260      1.776390      0.000000
  H      -3.889590      1.360400     -0.814440
3
Coordinates from ORCA-job test_water E -76.426525696602
  O      -3.569743      1.778629      0.004384
  H      -2.609397      1.770485     -0.011562
  H      -3.872970      1.364066     -0.807262
3
Coordinates from ORCA-job test_water E -76.426615528663
  O      -3.573679      1.781162      0.009344
  H      -2.613221      1.767355     -0.017688
  H      -3.865210      1.364662     -0.806095
3
Coordinates from ORCA-job test_water E -76.426629001598
  O      -3.575654      1.782433      0.011832
  H      -2.613654      1.766263     -0.019827
  H      -3.862802      1.364484     -0.806445
3
Coordinates from ORCA-job test_water E -76.426641165375
  O      -3.575708      1.782468      0.011900
  H      -2.613462      1.766299     -0.019757
  H      -3.862940      1.364413     -0.806583
